Version 4
SHEET 1 1160 680
WIRE 560 -32 416 -32
WIRE 720 -32 640 -32
WIRE 416 128 416 -32
WIRE 560 128 416 128
WIRE 720 144 720 -32
WIRE 720 144 624 144
WIRE 816 144 720 144
WIRE 1040 144 960 144
WIRE 416 160 416 128
WIRE 560 160 480 160
WIRE 720 176 720 144
WIRE 1040 192 1040 144
WIRE 480 272 480 160
WIRE 720 272 720 256
WIRE 720 272 480 272
WIRE 720 288 720 272
WIRE 720 384 720 368
FLAG 416 224 0
FLAG 720 384 0
FLAG 1040 192 0
SYMBOL ValVol\\ST\\OpAmp\\uA741 592 80 R0
SYMATTR InstName U4
SYMBOL Vcc 592 48 R0
SYMATTR Value Vcc=15
SYMATTR InstName U5
SYMBOL Vcc 592 240 R180
SYMATTR Value Vcc=-15
SYMATTR InstName U6
SYMBOL res 544 -16 R270
WINDOW 0 32 56 VTop 2
WINDOW 3 0 56 VBottom 2
SYMATTR InstName R4
SYMATTR Value 4.7k
SYMBOL res 704 160 R0
SYMATTR InstName R5
SYMATTR Value 1k
SYMBOL res 704 272 R0
SYMATTR InstName R6
SYMATTR Value 1k
SYMBOL cap 400 160 R0
SYMATTR InstName C2
SYMATTR Value 0.1µ
SYMBOL ind 864 160 R270
WINDOW 0 32 56 VTop 2
WINDOW 3 5 56 VBottom 2
SYMATTR InstName L2
SYMATTR Value 100m
SYMATTR SpiceLine Rser=1k
SYMBOL diode 816 160 R270
WINDOW 0 32 32 VTop 2
WINDOW 3 0 32 VBottom 2
SYMATTR InstName D1
TEXT 400 408 Left 2 !.tran 0 0.3 0.2
